
                    3D
 Schrodinger Suite 2021-2.
 32 34  0  0  1  0            999 V2000
   18.7280   25.7040    6.9980 O   0  0  0  0  0  0
   19.0390   25.7130    8.3740 C   0  0  0  0  0  0
   19.3350   27.1570    8.8350 C   0  0  1  0  0  0
   18.1450   27.9400    8.8990 O   0  0  0  0  0  0
   19.8290   27.2240   10.2820 C   0  0  1  0  0  0
   20.5920   28.4080   10.4550 O   0  0  0  0  0  0
   18.5380   27.2180   11.1010 C   0  0  1  0  0  0
   18.6590   28.0140   12.2640 O   0  0  0  0  0  0
   17.4750   27.7500   10.1110 C   0  0  2  0  0  0
   16.3420   26.7990    9.8230 N   0  0  0  0  0  0
   15.6050   26.7510    8.6570 C   0  0  0  0  0  0
   14.6540   25.8600    8.6180 N   0  0  0  0  0  0
   14.7080   25.2670    9.8700 C   0  0  0  0  0  0
   13.9680   24.2350   10.4990 C   0  0  0  0  0  0
   12.9680   23.5800    9.8950 N   0  0  0  0  0  0
   14.2810   23.8950   11.7700 N   0  0  0  0  0  0
   15.2610   24.5470   12.4000 C   0  0  0  0  0  0
   16.0320   25.5380   11.9440 N   0  0  0  0  0  0
   15.7370   25.8660   10.6510 C   0  0  0  0  0  0
   17.9630   26.2420    6.8620 H   0  0  0  0  0  0
   19.9270   25.0940    8.5090 H   0  0  0  0  0  0
   18.2420   25.2360    8.9410 H   0  0  0  0  0  0
   20.0520   27.6120    8.1500 H   0  0  0  0  0  0
   20.4700   26.3800   10.5370 H   0  0  0  0  0  0
   21.3520   28.3630    9.8940 H   0  0  0  0  0  0
   18.3350   26.1870   11.3750 H   0  0  0  0  0  0
   19.1260   28.8010   12.0220 H   0  0  0  0  0  0
   16.9780   28.6680   10.4290 H   0  0  0  0  0  0
   15.8060   27.3990    7.8160 H   0  0  0  0  0  0
   12.4720   22.8530   10.3890 H   0  0  0  0  0  0
   12.7150   23.8170    8.9460 H   0  0  0  0  0  0
   15.4530   24.2350   13.4160 H   0  0  0  0  0  0
  1  2  1  0  0  0
  1 20  1  0  0  0
  2  3  1  0  0  0
  2 21  1  0  0  0
  2 22  1  0  0  0
  3  4  1  0  0  0
  3  5  1  0  0  0
  3 23  1  0  0  0
  4  9  1  0  0  0
  5  6  1  0  0  0
  5  7  1  0  0  0
  5 24  1  0  0  0
  6 25  1  0  0  0
  7  8  1  0  0  0
  7  9  1  0  0  0
  7 26  1  0  0  0
  8 27  1  0  0  0
  9 10  1  0  0  0
  9 28  1  0  0  0
 10 11  1  0  0  0
 10 19  1  0  0  0
 11 12  2  0  0  0
 11 29  1  0  0  0
 12 13  1  0  0  0
 13 14  1  0  0  0
 13 19  2  0  0  0
 14 15  1  0  0  0
 14 16  2  0  0  0
 15 30  1  0  0  0
 15 31  1  0  0  0
 16 17  1  0  0  0
 17 18  2  0  0  0
 17 32  1  0  0  0
 18 19  1  0  0  0
M  END
> <s_pdb_PDB_format_version>
3.0

$$$$
