@<TRIPOS>MOLECULE
*****
 32 34 0 0 0
SMALL
GASTEIGER
****
Schrodinger Suite 2021-2.
@<TRIPOS>ATOM
      1 O5*        18.7280   25.7040    6.9980 O.3     1    A1       -0.3924
      2 C5*        19.0390   25.7130    8.3740 C.3     1    A1        0.0730
      3 C4*        19.3350   27.1570    8.8350 C.3     1    A1        0.1126
      4 O4*        18.1450   27.9400    8.8990 O.3     1    A1       -0.3457
      5 C3*        19.8290   27.2240   10.2820 C.3     1    A1        0.1135
      6 O3*        20.5920   28.4080   10.4550 O.3     1    A1       -0.3864
      7 C2*        18.5380   27.2180   11.1010 C.3     1    A1        0.1285
      8 O2*        18.6590   28.0140   12.2640 O.3     1    A1       -0.3847
      9 C1*        17.4750   27.7500   10.1110 C.3     1    A1        0.1667
     10 N9         16.3420   26.7990    9.8230 N.ar    1    A1       -0.2855
     11 C8         15.6050   26.7510    8.6570 C.ar    1    A1        0.1004
     12 N7         14.6540   25.8600    8.6180 N.ar    1    A1       -0.2306
     13 C5         14.7080   25.2670    9.8700 C.ar    1    A1        0.1473
     14 C6         13.9680   24.2350   10.4990 C.ar    1    A1        0.1472
     15 N6         12.9680   23.5800    9.8950 N.pl3   1    A1       -0.3413
     16 N1         14.2810   23.8950   11.7700 N.ar    1    A1       -0.2188
     17 C2         15.2610   24.5470   12.4000 C.ar    1    A1        0.1205
     18 N3         16.0320   25.5380   11.9440 N.ar    1    A1       -0.2159
     19 C4         15.7370   25.8660   10.6510 C.ar    1    A1        0.1674
     20 H5*        17.9630   26.2420    6.8620 H       1    A1        0.2095
     21 H5*1       19.9270   25.0940    8.5090 H       1    A1        0.0584
     22 H5*2       18.2420   25.2360    8.9410 H       1    A1        0.0584
     23 H4*        20.0520   27.6120    8.1500 H       1    A1        0.0647
     24 H3*        20.4700   26.3800   10.5370 H       1    A1        0.0647
     25 H3*        21.3520   28.3630    9.8940 H       1    A1        0.2100
     26 H2*        18.3350   26.1870   11.3750 H       1    A1        0.0665
     27 H2*        19.1260   28.8010   12.0220 H       1    A1        0.2101
     28 H1*        16.9780   28.6680   10.4290 H       1    A1        0.0866
     29 H8         15.8060   27.3990    7.8160 H       1    A1        0.1030
     30 H61        12.4720   22.8530   10.3890 H       1    A1        0.1438
     31 H62        12.7150   23.8170    8.9460 H       1    A1        0.1438
     32 H2         15.4530   24.2350   13.4160 H       1    A1        0.1048
@<TRIPOS>BOND
     1     1     2    1
     2     1    20    1
     3     2     3    1
     4     2    21    1
     5     2    22    1
     6     3     4    1
     7     3     5    1
     8     3    23    1
     9     4     9    1
    10     5     6    1
    11     5     7    1
    12     5    24    1
    13     6    25    1
    14     7     8    1
    15     7     9    1
    16     7    26    1
    17     8    27    1
    18     9    10    1
    19     9    28    1
    20    10    11   ar
    21    10    19   ar
    22    11    12   ar
    23    11    29    1
    24    12    13   ar
    25    13    14   ar
    26    13    19   ar
    27    14    15    1
    28    14    16   ar
    29    15    30    1
    30    15    31    1
    31    16    17   ar
    32    17    18   ar
    33    17    32    1
    34    18    19   ar

@<TRIPOS>SUBSTRUCTURE
1	UNK	1	GROUP	1 X	UNK
